Version 4
SHEET 1 880 680
WIRE 128 128 64 128
WIRE 256 128 208 128
WIRE 64 160 64 128
WIRE 256 160 256 128
WIRE 64 272 64 240
WIRE 256 272 256 224
WIRE 256 272 64 272
FLAG 64 272 0
SYMBOL res 224 112 R90
WINDOW 0 0 56 VBottom 2
WINDOW 3 32 56 VTop 2
SYMATTR InstName R1
SYMATTR Value 1000
SYMBOL cap 240 160 R0
SYMATTR InstName C1
SYMATTR Value 1µ
SYMBOL voltage 64 144 R0
WINDOW 123 0 0 Left 2
WINDOW 39 0 0 Left 2
SYMATTR InstName V1
SYMATTR Value PULSE(0 9 0 1n 1n 10m 20m 5)
TEXT 30 296 Left 2 !.tran 0 100m 0 5m
