Version 4
SHEET 1 1404 776
WIRE 624 -592 272 -592
WIRE 512 -528 368 -528
WIRE 624 -432 624 -512
WIRE 624 -432 544 -432
WIRE 656 -432 624 -432
WIRE 512 -400 512 -528
WIRE 544 -400 544 -432
WIRE 656 -400 656 -432
WIRE 496 -368 384 -368
WIRE 592 -368 560 -368
WIRE 528 -320 528 -336
WIRE 656 -320 528 -320
WIRE 592 -256 592 -368
WIRE 896 -256 592 -256
WIRE 272 -208 272 -592
WIRE 624 -208 272 -208
WIRE -64 -48 -192 -48
WIRE 48 -48 16 -48
WIRE -656 -16 -736 -16
WIRE -448 -16 -576 -16
WIRE 96 32 96 -224
WIRE 96 32 -32 32
WIRE -32 80 -32 32
WIRE -656 96 -912 96
WIRE -448 96 -448 -16
WIRE -448 96 -576 96
WIRE -192 96 -192 -48
WIRE -192 96 -448 96
WIRE -64 96 -192 96
WIRE 48 112 48 -48
WIRE 48 112 0 112
WIRE 96 112 48 112
WIRE 240 112 176 112
WIRE 288 112 240 112
WIRE 416 112 352 112
WIRE -64 128 -112 128
WIRE 400 160 400 -64
WIRE 400 160 320 160
WIRE 320 176 320 160
WIRE 240 192 240 112
WIRE 288 192 240 192
WIRE -656 208 -784 208
WIRE -448 208 -448 96
WIRE -448 208 -576 208
WIRE -32 208 -32 144
WIRE 416 208 416 112
WIRE 416 208 352 208
WIRE 448 208 416 208
WIRE 624 208 624 -208
WIRE 624 208 448 208
WIRE 832 208 624 208
WIRE 288 224 176 224
WIRE -112 304 -112 128
WIRE 320 304 320 240
WIRE 832 304 832 208
WIRE 944 304 912 304
WIRE 992 304 944 304
WIRE 1136 304 1056 304
WIRE 176 336 176 224
WIRE 1008 384 1008 64
WIRE 944 400 944 304
WIRE 976 400 944 400
WIRE 1136 416 1136 304
WIRE 1136 416 1040 416
WIRE 1360 416 1136 416
WIRE 976 432 848 432
WIRE -912 480 -912 96
WIRE 528 480 528 -320
WIRE 528 480 -912 480
WIRE 1008 512 1008 448
WIRE 848 592 848 432
WIRE -784 752 -784 208
WIRE 1360 752 1360 416
WIRE 1360 752 -784 752
FLAG -816 -16 0
FLAG -112 304 0
FLAG 176 336 0
FLAG 368 -528 0
FLAG 848 592 0
FLAG 1360 416 Vo
FLAG 448 208 Va
SYMBOL Opamps\\OP07 -32 48 R0
SYMATTR InstName U1
SYMBOL Opamps\\OP07 320 144 R0
SYMATTR InstName U2
SYMBOL Opamps\\OP07 592 -368 R90
SYMATTR InstName U3
SYMBOL Opamps\\OP07 1008 352 R0
SYMATTR InstName U4
SYMBOL res -560 80 R90
WINDOW 0 0 56 VBottom 2
WINDOW 3 32 56 VTop 2
SYMATTR InstName R1
SYMATTR Value 5k
SYMBOL res -560 -32 R90
WINDOW 0 0 56 VBottom 2
WINDOW 3 32 56 VTop 2
SYMATTR InstName R2
SYMATTR Value 10k
SYMBOL res -560 192 R90
WINDOW 0 0 56 VBottom 2
WINDOW 3 32 56 VTop 2
SYMATTR InstName R3
SYMATTR Value 10k
SYMBOL res 32 -64 R90
WINDOW 0 0 56 VBottom 2
WINDOW 3 32 56 VTop 2
SYMATTR InstName R4
SYMATTR Value 10k
SYMBOL res 192 96 R90
WINDOW 0 0 56 VBottom 2
WINDOW 3 32 56 VTop 2
SYMATTR InstName R5
SYMATTR Value 1k
SYMBOL res 640 -496 R180
WINDOW 0 36 76 Left 2
WINDOW 3 36 40 Left 2
SYMATTR InstName R6
SYMATTR Value 100
SYMBOL res 672 -304 R180
WINDOW 0 36 76 Left 2
WINDOW 3 36 40 Left 2
SYMATTR InstName R7
SYMATTR Value 100
SYMBOL res 928 288 R90
WINDOW 0 0 56 VBottom 2
WINDOW 3 32 56 VTop 2
SYMATTR InstName R8
SYMATTR Value 10k
SYMBOL cap 352 96 R90
WINDOW 0 0 32 VBottom 2
WINDOW 3 32 32 VTop 2
SYMATTR InstName C1
SYMATTR Value 1m
SYMBOL cap 1056 288 R90
WINDOW 0 0 32 VBottom 2
WINDOW 3 32 32 VTop 2
SYMATTR InstName C2
SYMATTR Value 0.1m
SYMBOL voltage -720 -16 R90
WINDOW 0 -32 56 VBottom 2
WINDOW 3 32 56 VTop 2
WINDOW 123 0 0 Left 2
WINDOW 39 0 0 Left 2
SYMATTR InstName V9
SYMATTR Value SINE(0 -10 0.637 0 0 0)
SYMBOL voltage -32 192 R0
WINDOW 123 0 0 Left 2
WINDOW 39 0 0 Left 2
SYMATTR InstName V2
SYMATTR Value -15
SYMBOL voltage 320 288 R0
WINDOW 123 0 0 Left 2
WINDOW 39 0 0 Left 2
SYMATTR InstName V3
SYMATTR Value -15
SYMBOL voltage 1008 496 R0
WINDOW 123 0 0 Left 2
WINDOW 39 0 0 Left 2
SYMATTR InstName V6
SYMATTR Value -15
SYMBOL voltage 384 -384 R0
WINDOW 123 0 0 Left 2
WINDOW 39 0 0 Left 2
SYMATTR InstName V8
SYMATTR Value -15
SYMBOL voltage 96 -208 R180
WINDOW 0 24 96 Left 2
WINDOW 3 24 16 Left 2
WINDOW 123 0 0 Left 2
WINDOW 39 0 0 Left 2
SYMATTR InstName V1
SYMATTR Value 15
SYMBOL voltage 400 -48 R180
WINDOW 0 24 96 Left 2
WINDOW 3 24 16 Left 2
WINDOW 123 0 0 Left 2
WINDOW 39 0 0 Left 2
SYMATTR InstName V4
SYMATTR Value 15
SYMBOL voltage 1008 80 R180
WINDOW 0 24 96 Left 2
WINDOW 3 24 16 Left 2
WINDOW 123 0 0 Left 2
WINDOW 39 0 0 Left 2
SYMATTR InstName V5
SYMATTR Value 15
SYMBOL voltage 880 -256 R270
WINDOW 0 32 56 VTop 2
WINDOW 3 -32 56 VBottom 2
WINDOW 123 0 0 Left 2
WINDOW 39 0 0 Left 2
SYMATTR InstName V7
SYMATTR Value 15
TEXT -912 760 Left 2 !.tran 20
TEXT -448 -176 Left 2 !.ic V(Vo)=-4 V(Va)=-1
